Version 4
SHEET 1 888 680
SYMBOL nmos 96 192 R0
SYMATTR InstName M1
SYMBOL nmos 96 544 R0
SYMATTR InstName M2
SYMBOL ind 448 384 R90
WINDOW 0 5 56 VBottom 2
WINDOW 3 32 56 VTop 2
SYMATTR InstName L1
SYMBOL cap 528 400 R0
SYMATTR InstName C1
SYMBOL res 816 384 R0
SYMATTR InstName R1
SYMBOL voltage -448 288 R0
SYMATTR InstName V1
